%mem=1GB
#p pddg opt freq=noraman

pentane conformation 4

0 1
 C                 -5.83870974    0.93548386    0.00000000
 H                 -5.48205531   -0.07332615    0.00000000
 H                 -5.48203690    1.43988205   -0.87365150
 C                 -5.32536752    1.66144013    1.25740497
 H                 -4.25536933    1.65973306    1.25838332
 H                 -5.68363648    1.15817213    2.13105517
 C                 -5.83638350    3.11418260    1.25599826
 H                 -5.48001807    3.61847284    2.12983751
 H                 -5.47780755    3.61755901    0.38253649
 C                 -7.37870974    0.93550283    0.00000000
 H                 -7.73536479    1.85231774   -0.42088906
 H                 -7.73538623    0.11260120   -0.58353645
 H                 -7.73537775    0.84160273    1.00442556
 C                 -7.37638031    3.11663789    1.25404821
 H                 -7.73176742    3.11788398    0.24479183
 H                 -7.73507732    2.24321781    1.75741073
 H                 -7.73229352    3.99051786    1.75858720


