%mem=1GB
#p pddg opt freq=noraman

pentane conformation 2

0 1
 C                 -2.32258067   -0.45161290    0.00000000
 H                 -1.96592624   -1.46042290    0.00000000
 H                 -1.96590783    0.05278529   -0.87365150
 H                 -3.39258067   -0.45159971    0.00000000
 C                 -1.80923845    0.27434338    1.25740497
 H                 -2.16429480    1.28371647    1.25642745
 H                 -2.16750756   -0.22892506    2.13105486
 C                 -0.26924105    0.27188702    1.25881364
 H                  0.08902743    0.77482890    0.38497547
 H                  0.08581518   -0.73748567    1.26016738
 C                  0.24410143    0.99831234    2.51594759
 H                 -0.11423538    0.49541804    3.38978513
 H                 -0.11088694    2.00770885    2.51455266
 C                  1.78409860    0.99575293    2.51741591
 H                  2.14243455    1.49863948    1.64357355
 H                  2.14077165    1.50048446    3.39087479
 H                  2.13908720   -0.01364349    2.51881957


