%mem=1GB
#p pddg opt freq=noraman

pentane conformation 3

0 1
 C                 -5.54838716    0.96774192    0.00000000
 H                 -5.19171432    1.47214011    0.87365150
 H                 -6.61838716    0.96775511    0.00000000
 C                 -5.03507144   -0.48419023    0.00000000
 H                 -5.39174509   -0.98858871   -0.87365101
 H                 -5.39174354   -0.98858870    0.87365165
 C                 -3.49507144   -0.48420843   -0.00000086
 H                 -3.13841702   -1.49301844    0.00000163
 H                 -3.13839962    0.02018814   -0.87365371
 C                 -2.98172855    0.24175160    1.25740167
 H                 -1.99830083   -0.10712535    1.49416059
 H                 -2.95175731    1.29542978    1.07365176
 H                 -3.63845440    0.04135095    2.07804211
 C                 -5.03504494    1.69369819   -1.25740497
 H                 -5.75240926    2.42584997   -1.56439389
 H                 -4.10564335    2.17569583   -1.03651821
 H                 -4.89040951    0.98394671   -2.04495397


