%mem=1GB
#p pddg opt freq=noraman

pentane conformation 1

0 1
 C                  0.16129032   -1.06451611    0.00000000
 H                  0.51794475   -2.07332612    0.00000000
 H                  0.51796316   -0.56011792   -0.87365150
 H                 -0.90870968   -1.06450293    0.00000000
 C                  0.67463254   -0.33855984    1.25740497
 H                  0.31957598    0.67081318    1.25642758
 H                  0.31636358   -0.84182784    2.13105517
 C                  2.21462994   -0.34101674    1.25881307
 H                  2.57289828    0.16192455    0.38497449
 H                  2.57130347    0.16370768    2.13227586
 C                  2.72564493   -1.79375893    1.26076201
 H                  2.75620089   -2.16244678    0.25675225
 H                  2.06725948   -2.40265861    1.84443124
 C                  4.14026474   -1.83950540    1.86768709
 H                  4.09798585   -1.53934618    2.89385323
 H                  4.52400119   -2.83624041    1.80314517
 H                  4.78169199   -1.17471446    1.32775738

 1 2 1.0 3 1.0 4 1.0 5 1.0
 2
 3
 4
 5 6 1.0 7 1.0 8 1.0
 6
 7
 8 9 1.0 10 1.0 11 1.0
 9
 10
 11 12 1.0 13 1.0 14 1.0
 12
 13
 14 15 1.0 16 1.0 17 1.0
 15
 16
 17

